REMARK  12 active torsions:
REMARK  status: ('A' for Active; 'I' for Inactive)
REMARK    1  A    between atoms: C2_24  and  C3_25 
REMARK    2  A    between atoms: C2_24  and  C5_27 
REMARK    3  A    between atoms: C3_25  and  C4_26 
REMARK    4  A    between atoms: C5_27  and  C6_28 
REMARK    5  A    between atoms: C8_30  and  C9_31 
REMARK    6  A    between atoms: C8_30  and  C11_33 
REMARK    7  A    between atoms: C9_31  and  C10_32 
REMARK    8  A    between atoms: C11_33  and  C12_34 
REMARK    9  A    between atoms: C14_36  and  C15_37 
REMARK   10  A    between atoms: C14_36  and  C17_39 
REMARK   11  A    between atoms: C15_37  and  C16'_38 
REMARK   12  A    between atoms: C17_39  and  C18_40 
ROOT
ATOM      1 TI1  UNK A   1      15.047   0.710  22.220  1.00  0.00     0.000 Ti
ATOM      2  O1  UNK A   1      15.835   1.873  20.789  1.00  0.00    -0.147 OA
ATOM      3  O2  UNK A   1      13.555   0.999  21.159  1.00  0.00    -0.216 OA
ATOM      4  O3  UNK A   1      15.402   3.030  18.981  1.00  0.00    -0.259 OA
ATOM      5  O8  UNK A   1      16.149  -0.727  21.210  1.00  0.00    -0.147 OA
ATOM      6  O9  UNK A   1      14.475  -0.830  23.034  1.00  0.00    -0.216 OA
ATOM      7  O10 UNK A   1      16.286  -2.894  20.783  1.00  0.00    -0.259 OA
ATOM      8  O15 UNK A   1      16.905   1.068  23.075  1.00  0.00    -0.147 OA
ATOM      9  O16 UNK A   1      14.625   1.959  23.535  1.00  0.00    -0.216 OA
ATOM     10  O17 UNK A   1      17.973   2.248  24.639  1.00  0.00    -0.259 OA
ATOM     11  C1  UNK A   1      15.037   2.293  19.880  1.00  0.00     0.328 A 
ATOM     12  C2  UNK A   1      13.595   1.788  20.005  1.00  0.00     0.204 A 
ATOM     13  C7  UNK A   1      15.830  -1.945  21.420  1.00  0.00     0.328 C 
ATOM     14  C8  UNK A   1      14.867  -2.114  22.597  1.00  0.00     0.204 C 
ATOM     15  C13 UNK A   1      16.953   1.907  24.034  1.00  0.00     0.328 A 
ATOM     16  C14 UNK A   1      15.582   2.482  24.434  1.00  0.00     0.204 A 
ENDROOT
BRANCH  12  17
ATOM     17  C3  UNK A   1      12.671   3.014  20.130  1.00  0.00     0.165 C 
BRANCH  17  18
ATOM     18  C4  UNK A   1      13.429   4.265  20.564  1.00  0.00     0.176 C 
ATOM     19  O4  UNK A   1      13.932   4.264  21.699  1.00  0.00    -0.648 OA
ATOM     20  O5  UNK A   1      13.457   5.244  19.813  1.00  0.00    -0.648 OA
ENDBRANCH  17  18
ENDBRANCH  12  17
BRANCH  12  21
ATOM     21  C5  UNK A   1      13.229   0.919  18.796  1.00  0.00     0.165 C 
BRANCH  21  22
ATOM     22  C6  UNK A   1      11.780   0.452  18.863  1.00  0.00     0.176 C 
ATOM     23  O6  UNK A   1      11.541  -0.748  18.609  1.00  0.00    -0.648 OA
ATOM     24  O7  UNK A   1      10.902   1.284  19.125  1.00  0.00    -0.648 OA
ENDBRANCH  21  22
ENDBRANCH  12  21
BRANCH  14  25
ATOM     25  C9  UNK A   1      15.620  -2.805  23.739  1.00  0.00     0.165 C 
BRANCH  25  26
ATOM     26  C10 UNK A   1      15.112  -4.203  24.060  1.00  0.00     0.176 C 
ATOM     27  O11 UNK A   1      15.354  -5.112  23.234  1.00  0.00    -0.648 OA
ATOM     28  O12 UNK A   1      14.469  -4.352  25.126  1.00  0.00    -0.648 OA
ENDBRANCH  25  26
ENDBRANCH  14  25
BRANCH  14  29
ATOM     29  C11 UNK A   1      13.654  -2.939  22.127  1.00  0.00     0.165 C 
BRANCH  29  30
ATOM     30  C12 UNK A   1      12.360  -2.224  22.369  1.00  0.00     0.176 C 
ATOM     31  O13 UNK A   1      11.741  -2.512  23.407  1.00  0.00    -0.648 OA
ATOM     32  O14 UNK A   1      11.988  -1.330  21.548  1.00  0.00    -0.648 OA
ENDBRANCH  29  30
ENDBRANCH  14  29
BRANCH  16  33
ATOM     33  C15 UNK A   1      15.274   2.004  25.841  1.00  0.00     0.165 C 
BRANCH  33  34
ATOM     34  C16 UNK A   1      14.130   1.410  26.210  1.00  0.00     0.176 C 
ATOM     35  O18 UNK A   1      14.293   0.357  26.880  1.00  0.00    -0.648 OA
ATOM     36  O19 UNK A   1      12.923   1.579  25.700  1.00  0.00    -0.648 OA
ENDBRANCH  33  34
ENDBRANCH  16  33
BRANCH  16  37
ATOM     37  C17 UNK A   1      15.598   4.009  24.329  1.00  0.00     0.165 C 
BRANCH  37  38
ATOM     38  C18 UNK A   1      16.917   4.514  23.810  1.00  0.00     0.176 C 
ATOM     39  O20 UNK A   1      17.704   5.013  24.650  1.00  0.00    -0.648 OA
ATOM     40  O21 UNK A   1      17.163   4.413  22.582  1.00  0.00    -0.648 OA
ENDBRANCH  37  38
ENDBRANCH  16  37
TORSDOF 12
