REMARK  12 active torsions:
REMARK  status: ('A' for Active; 'I' for Inactive)
REMARK    1  A    between atoms: C2_24  and  C3_25 
REMARK    2  A    between atoms: C2_24  and  C5_27 
REMARK    3  A    between atoms: C3_25  and  C4_26 
REMARK    4  A    between atoms: C5_27  and  C6_28 
REMARK    5  A    between atoms: C8_30  and  C9_31 
REMARK    6  A    between atoms: C8_30  and  C11_33 
REMARK    7  A    between atoms: C9_31  and  C10_32 
REMARK    8  A    between atoms: C11_33  and  C12_34 
REMARK    9  A    between atoms: C14_36  and  C15_37 
REMARK   10  A    between atoms: C14_36  and  C17_39 
REMARK   11  A    between atoms: C15_37  and  C16'_38 
REMARK   12  A    between atoms: C17_39  and  C18_40 
ROOT
ATOM      1 TI1  UNK A   1       6.732   1.008   8.692  1.00  0.00     0.000 Ti
ATOM      2  O1  UNK A   1       6.538   0.987   6.696  1.00  0.00    -0.147 OA
ATOM      3  O2  UNK A   1       7.022   2.798   8.305  1.00  0.00    -0.216 OA
ATOM      4  O3  UNK A   1       6.652   2.195   4.873  1.00  0.00    -0.259 OA
ATOM      5  O8  UNK A   1       4.677   0.763   8.573  1.00  0.00    -0.147 OA
ATOM      6  O9  UNK A   1       6.236   1.213  10.445  1.00  0.00    -0.216 OA
ATOM      7  O10 UNK A   1       2.776   1.094   9.657  1.00  0.00    -0.259 OA
ATOM      8  O15 UNK A   1       6.669  -1.045   8.390  1.00  0.00    -0.147 OA
ATOM      9  O16 UNK A   1       8.521   0.538   8.904  1.00  0.00    -0.216 OA
ATOM     10  O17 UNK A   1       7.915  -2.894   8.300  1.00  0.00    -0.259 OA
ATOM     11  C1  UNK A   1       6.715   2.099   6.086  1.00  0.00     0.328 A 
ATOM     12  C2  UNK A   1       7.001   3.297   6.999  1.00  0.00     0.204 A 
ATOM     13  C7  UNK A   1       4.005   1.043   9.622  1.00  0.00     0.328 C 
ATOM     14  C8  UNK A   1       4.886   1.245  10.857  1.00  0.00     0.204 C 
ATOM     15  C13 UNK A   1       7.772  -1.680   8.469  1.00  0.00     0.328 A 
ATOM     16  C14 UNK A   1       8.979  -0.797   8.835  1.00  0.00     0.204 A 
ENDROOT
BRANCH  12  17
ATOM     17  C3  UNK A   1       8.368   3.884   6.600  1.00  0.00     0.165 C 
BRANCH  17  18
ATOM     18  C4  UNK A   1       8.663   5.197   7.319  1.00  0.00     0.176 C 
ATOM     19  O4  UNK A   1       9.102   5.128   8.478  1.00  0.00    -0.648 OA
ATOM     20  O5  UNK A   1       8.395   6.264   6.760  1.00  0.00    -0.648 OA
ENDBRANCH  17  18
ENDBRANCH  12  17
BRANCH  12  21
ATOM     21  C5  UNK A   1       5.878   4.335   6.882  1.00  0.00     0.165 C 
BRANCH  21  22
ATOM     22  C6  UNK A   1       4.528   3.740   7.262  1.00  0.00     0.176 C 
ATOM     23  O6  UNK A   1       4.094   3.964   8.413  1.00  0.00    -0.648 OA
ATOM     24  O7  UNK A   1       3.940   3.030   6.436  1.00  0.00    -0.648 OA
ENDBRANCH  21  22
ENDBRANCH  12  21
BRANCH  14  25
ATOM     25  C9  UNK A   1       4.644   0.075  11.816  1.00  0.00     0.165 C 
BRANCH  25  26
ATOM     26  C10 UNK A   1       4.951  -1.290  11.218  1.00  0.00     0.176 C 
ATOM     27  O11 UNK A   1       4.142  -1.753  10.382  1.00  0.00    -0.648 OA
ATOM     28  O12 UNK A   1       5.989  -1.872  11.613  1.00  0.00    -0.648 OA
ENDBRANCH  25  26
ENDBRANCH  14  25
BRANCH  14  29
ATOM     29  C11 UNK A   1       4.530   2.598  11.500  1.00  0.00     0.165 C 
BRANCH  29  30
ATOM     30  C12 UNK A   1       5.002   2.688  12.919  1.00  0.00     0.176 C 
ATOM     31  O13 UNK A   1       4.203   2.336  13.803  1.00  0.00    -0.648 OA
ATOM     32  O14 UNK A   1       6.194   3.058  13.149  1.00  0.00    -0.648 OA
ENDBRANCH  29  30
ENDBRANCH  14  29
BRANCH  16  33
ATOM     33  C15 UNK A   1       9.475  -1.237  10.201  1.00  0.00     0.165 C 
BRANCH  33  34
ATOM     34  C16 UNK A   1      10.619  -0.824  10.764  1.00  0.00     0.176 C 
ATOM     35  O18 UNK A   1      10.740  -1.149  11.974  1.00  0.00    -0.648 OA
ATOM     36  O19 UNK A   1      11.438   0.124  10.345  1.00  0.00    -0.648 OA
ENDBRANCH  33  34
ENDBRANCH  16  33
BRANCH  16  37
ATOM     37  C17 UNK A   1      10.062  -0.909   7.760  1.00  0.00     0.165 C 
BRANCH  37  38
ATOM     38  C18 UNK A   1       9.577  -0.396   6.430  1.00  0.00     0.176 C 
ATOM     39  O20 UNK A   1       9.995   0.731   6.070  1.00  0.00    -0.648 OA
ATOM     40  O21 UNK A   1       8.793  -1.109   5.756  1.00  0.00    -0.648 OA
ENDBRANCH  37  38
ENDBRANCH  16  37
TORSDOF 12
